7
Lattice="13.0 0.0 0.0 0.0 9.0 0.0 0.0 0.0 9.0" Properties=species:S:1:pos:R:3:momenta:R:3:forces:R:3 EPS_SCF=1e-06 energy=-670.3555356576336 units=gap_units Integrated_spin_density=1.924e-05 opt_dir=/home/tks32/dft_pbe/apr_8_opt_fragments_subset/singlepoint_5_CH3OH time=55.0 free_energy=-670.3555356576336 cutoff=8.0 nneightol=1.2 pbc="T T T"
C       -0.80356726       0.31465103       0.06397907       0.95174498      -0.56896047      -0.69944122       0.02879944      -0.75024105      -0.14372262
O        0.43869325      -0.38505268       0.48885026      -1.24888342       0.85903284       0.53771082      -0.01849050       0.54036732      -1.18817111
H       -1.58164177      -0.44332458      -0.20193612      -0.18312249       0.09078689       0.34014371       0.41681282       0.34103052       0.11593831
H        1.02371544      -0.33089342      -0.30126959       0.79469646       0.21327291      -0.24417644       0.03232994      -0.17548027       0.26817210
H       -1.18552302       0.91180239       0.89441871       0.13630430      -0.34211488       0.02550033       0.17485494       0.10801475       0.24483327
H       -0.68175244       1.00355472      -0.80116804      -0.14119799       0.00016733       0.04818154      -0.01949240      -0.23142806       0.34495910
H        2.79007581      -1.07073745      -0.14287430      -0.30954183      -0.25218462      -0.00791873      -0.61481424       0.16773678       0.35799095
7
Lattice="13.0 0.0 0.0 0.0 9.0 0.0 0.0 0.0 9.0" Properties=species:S:1:pos:R:3:momenta:R:3:forces:R:3 EPS_SCF=1e-06 energy=-670.3824364774489 units=gap_units Integrated_spin_density=1.924e-05 opt_dir=/home/tks32/dft_pbe/apr_8_opt_fragments_subset/singlepoint_5_CH3OH time=55.0 free_energy=-670.3824364774489 cutoff=8.0 nneightol=1.2 pbc="T T T"
C       -0.80327927       0.30714862       0.06254184       0.95174498      -0.56896047      -0.69944122       0.11093213      -0.21266171       0.02260323
O        0.43850835      -0.37964901       0.47696855      -1.24888342       0.85903284       0.53771082      -0.17747223       0.34255569      -0.60833393
H       -1.57747364      -0.43991427      -0.20077674      -0.18312249       0.09078689       0.34014371       0.18434059       0.08912998       0.05108565
H        1.02403874      -0.33264822      -0.29858787       0.79469646       0.21327291      -0.24417644       0.27503674      -0.10257769      -0.20312796
H       -1.18377447       0.91288254       0.89686704       0.13630430      -0.34211488       0.02550033       0.23381131      -0.05207611       0.08070769
H       -0.68194736       1.00124044      -0.79771845      -0.14119799       0.00016733       0.04818154      -0.05449855      -0.21388792       0.29548136
H        2.78392767      -1.06906008      -0.13929439      -0.30954183      -0.25218462      -0.00791873      -0.57214998       0.14951775       0.36158396
7
Lattice="13.0 0.0 0.0 0.0 9.0 0.0 0.0 0.0 9.0" Properties=species:S:1:pos:R:3:momenta:R:3:forces:R:3 EPS_SCF=1e-06 energy=-670.4028824628704 units=gap_units Integrated_spin_density=1.924e-05 opt_dir=/home/tks32/dft_pbe/apr_8_opt_fragments_subset/singlepoint_5_CH3OH time=55.0 free_energy=-670.4028824628704 cutoff=8.0 nneightol=1.2 pbc="T T T"
C       -0.80173703       0.29793681       0.06150977       0.95174498      -0.56896047      -0.69944122       0.16330348       0.42237069       0.19175626
O        0.43628929      -0.37082371       0.45923903      -1.24888342       0.85903284       0.53771082      -0.18095022       0.04363829       0.06960612
H       -1.57159025      -0.43581412      -0.19914244      -0.18312249       0.09078689       0.34014371      -0.12862777      -0.22679647      -0.02842261
H        1.02751078      -0.33541396      -0.29852370       0.79469646       0.21327291      -0.24417644       0.47575799      -0.00623018      -0.70294758
H       -1.17949652       0.91325236       0.90000401       0.13630430      -0.34211488       0.02550033       0.27081986      -0.21680173      -0.07168203
H       -0.68275313       0.99668376      -0.79119628      -0.14119799       0.00016733       0.04818154      -0.10005335      -0.13068956       0.16950529
H        2.77177686      -1.06582113      -0.13189040      -0.30954183      -0.25218462      -0.00791873      -0.50024999       0.11450896       0.37218455
7
Lattice="13.0 0.0 0.0 0.0 9.0 0.0 0.0 0.0 9.0" Properties=species:S:1:pos:R:3:momenta:R:3:forces:R:3 EPS_SCF=1e-06 energy=-670.4228828586405 units=gap_units Integrated_spin_density=1.924e-05 opt_dir=/home/tks32/dft_pbe/apr_8_opt_fragments_subset/singlepoint_5_CH3OH time=55.0 free_energy=-670.4228828586405 cutoff=8.0 nneightol=1.2 pbc="T T T"
C       -0.79834263       0.29483552       0.06293686       0.95174498      -0.56896047      -0.69944122       0.02076100       0.52975905       0.18618441
O        0.43206894      -0.36234478       0.44413765      -1.24888342       0.85903284       0.53771082       0.27353318      -0.20972022       0.25009414
H       -1.56787554      -0.43491046      -0.19802077      -0.18312249       0.09078689       0.34014371      -0.24762881      -0.30797211      -0.03853563
H        1.03648089      -0.33797966      -0.30710252       0.79469646       0.21327291      -0.24417644       0.28795551       0.07210559      -0.71389800
H       -1.17231900       0.91092152       0.90194657       0.13630430      -0.34211488       0.02550033       0.21668844      -0.21193728      -0.03389843
H       -0.68470759       0.99097707      -0.78324375      -0.14119799       0.00016733       0.04818154      -0.12215465       0.05682149      -0.04139771
H        2.75469494      -1.06149919      -0.12065405      -0.30954183      -0.25218462      -0.00791873      -0.42915467       0.07094349       0.39145122
7
Lattice="13.0 0.0 0.0 0.0 9.0 0.0 0.0 0.0 9.0" Properties=species:S:1:pos:R:3:momenta:R:3:forces:R:3 EPS_SCF=1e-06 energy=-670.447821822624 units=gap_units Integrated_spin_density=1.924e-05 opt_dir=/home/tks32/dft_pbe/apr_8_opt_fragments_subset/singlepoint_5_CH3OH time=55.0 free_energy=-670.447821822624 cutoff=8.0 nneightol=1.2 pbc="T T T"
C       -0.79502703       0.29869527       0.06655872       0.95174498      -0.56896047      -0.69944122      -0.15875183       0.04446340      -0.00133288
O        0.43170473      -0.35734671       0.43368625      -1.24888342       0.85903284       0.53771082       0.83428997      -0.31321251       0.00597430
H       -1.56764118      -0.43796363      -0.19749507      -0.18312249       0.09078689       0.34014371      -0.11859243      -0.12847082       0.03353950
H        1.04816916      -0.33938354      -0.32378616       0.79469646       0.21327291      -0.24417644      -0.13676777       0.13256287      -0.38077900
H       -1.16313881       0.90616298       0.90326930       0.13630430      -0.34211488       0.02550033       0.13276695      -0.06411612       0.17182767
H       -0.68800021       0.98655442      -0.77660621      -0.14119799       0.00016733       0.04818154      -0.12354170       0.27423729      -0.25168007
H        2.73393336      -1.05671878      -0.10562684      -0.30954183      -0.25218462      -0.00791873      -0.42940319       0.05453590       0.42245048
7
Lattice="13.0 0.0 0.0 0.0 9.0 0.0 0.0 0.0 9.0" Properties=species:S:1:pos:R:3:momenta:R:3:forces:R:3 EPS_SCF=1e-06 energy=-670.4816682946583 units=gap_units Integrated_spin_density=1.924e-05 opt_dir=/home/tks32/dft_pbe/apr_8_opt_fragments_subset/singlepoint_5_CH3OH time=55.0 free_energy=-670.4816682946583 cutoff=8.0 nneightol=1.2 pbc="T T T"
C       -0.79410973       0.30274791       0.06980104       0.95174498      -0.56896047      -0.69944122      -0.06257734      -0.45878107      -0.22340341
O        0.44223831      -0.35692606       0.42435776      -1.24888342       0.85903284       0.53771082       0.88655990      -0.23896092      -0.19656433
H       -1.56897418      -0.44238401      -0.19658530      -0.18312249       0.09078689       0.34014371       0.06350111       0.05906002       0.11778974
H        1.05690805      -0.33892124      -0.34375869       0.79469646       0.21327291      -0.24417644      -0.35209356       0.16536312      -0.19235348
H       -1.15314817       0.90104558       0.90669673       0.13630430      -0.34211488       0.02550033       0.08377640       0.05619018       0.35493255
H       -0.69257192       0.98614425      -0.77390896      -0.14119799       0.00016733       0.04818154      -0.13559675       0.35278190      -0.30328080
H        2.70965765      -1.05170642      -0.08660258      -0.30954183      -0.25218462      -0.00791873      -0.48356977       0.06434677       0.44287973
7
Lattice="13.0 0.0 0.0 0.0 9.0 0.0 0.0 0.0 9.0" Properties=species:S:1:pos:R:3:momenta:R:3:forces:R:3 EPS_SCF=1e-06 energy=-670.534143237134 units=gap_units Integrated_spin_density=1.924e-05 opt_dir=/home/tks32/dft_pbe/apr_8_opt_fragments_subset/singlepoint_5_CH3OH time=55.0 free_energy=-670.534143237134 cutoff=8.0 nneightol=1.2 pbc="T T T"
C       -0.79409383       0.30045928       0.06982859       0.95174498      -0.56896047      -0.69944122       0.22857584      -0.42198635      -0.25527655
O        0.46318942      -0.35963931       0.41341885      -1.24888342       0.85903284       0.53771082       0.40198352      -0.08077602      -0.15213032
H       -1.56935227      -0.44559819      -0.19424247      -0.18312249       0.09078689       0.34014371       0.14908699       0.06966609       0.15189252
H        1.06021745      -0.33636559      -0.36422275       0.79469646       0.21327291      -0.24417644      -0.20419276       0.15479547      -0.30816058
H       -1.14307265       0.89716695       0.91437376       0.13630430      -0.34211488       0.02550033       0.13610277      -0.02962339       0.28354300
H       -0.69844090       0.99033961      -0.77540549      -0.14119799       0.00016733       0.04818154      -0.16108596       0.22110372      -0.15318589
H        2.68155279      -1.04636274      -0.06375049      -0.30954183      -0.25218462      -0.00791873      -0.55047039       0.08682048       0.43331783
7
Lattice="13.0 0.0 0.0 0.0 9.0 0.0 0.0 0.0 9.0" Properties=species:S:1:pos:R:3:momenta:R:3:forces:R:3 EPS_SCF=1e-06 energy=-670.5896586109419 units=gap_units Integrated_spin_density=1.924e-05 opt_dir=/home/tks32/dft_pbe/apr_8_opt_fragments_subset/singlepoint_5_CH3OH time=55.0 free_energy=-670.5896586109419 cutoff=8.0 nneightol=1.2 pbc="T T T"
C       -0.79080775       0.29235931       0.06619942       0.95174498      -0.56896047      -0.69944122       0.43953729       0.08127095      -0.02828488
O        0.48779929      -0.36323744       0.40139627      -1.24888342       0.85903284       0.53771082      -0.16117931       0.06875094      -0.06781481
H       -1.56755855      -0.44749378      -0.18995978      -0.18312249       0.09078689       0.34014371       0.15458416      -0.05733902       0.13551328
H        1.06027315      -0.33184980      -0.38705134       0.79469646       0.21327291      -0.24417644       0.10562785       0.09391459      -0.47461092
H       -1.13205654       0.89325216       0.92534164       0.13630430      -0.34211488       0.02550033       0.27140190      -0.29070411      -0.03093666
H       -0.70602872       0.99728025      -0.77894502      -0.14119799       0.00016733       0.04818154      -0.16537837      -0.02001919       0.07310458
H        2.64837912      -1.04031070      -0.03698121      -0.30954183      -0.25218462      -0.00791873      -0.64459352       0.12412584       0.39302941
7
Lattice="13.0 0.0 0.0 0.0 9.0 0.0 0.0 0.0 9.0" Properties=species:S:1:pos:R:3:momenta:R:3:forces:R:3 EPS_SCF=1e-06 energy=-670.6569239168114 units=gap_units Integrated_spin_density=1.924e-05 opt_dir=/home/tks32/dft_pbe/apr_8_opt_fragments_subset/singlepoint_5_CH3OH time=55.0 free_energy=-670.6569239168114 cutoff=8.0 nneightol=1.2 pbc="T T T"
C       -0.77967900       0.28579654       0.06209975       0.95174498      -0.56896047      -0.69944122       0.30544775       0.37872384       0.19390893
O        0.50927510      -0.36556772       0.38827884      -1.24888342       0.85903284       0.53771082      -0.27671303       0.19582296      -0.32954173
H       -1.56301297      -0.45039779      -0.18329181      -0.18312249       0.09078689       0.34014371       0.25835561      -0.09163215       0.13469980
H        1.06222091      -0.32569644      -0.41815561       0.79469646       0.21327291      -0.24417644       0.25540599      -0.01762527      -0.26648343
H       -1.11628768       0.88416775       0.93564553       0.13630430      -0.34211488       0.02550033       0.38013704      -0.46615039      -0.26740708
H       -0.71650387       1.00379279      -0.78113928      -0.14119799       0.00016733       0.04818154      -0.11059760      -0.18079616       0.20368571
H        2.60398752      -1.03209512      -0.00343742      -0.30954183      -0.25218462      -0.00791873      -0.81203576       0.18165717       0.33113781
7
Lattice="13.0 0.0 0.0 0.0 9.0 0.0 0.0 0.0 9.0" Properties=species:S:1:pos:R:3:momenta:R:3:forces:R:3 EPS_SCF=1e-06 energy=-670.7646292487357 units=gap_units Integrated_spin_density=1.924e-05 opt_dir=/home/tks32/dft_pbe/apr_8_opt_fragments_subset/singlepoint_5_CH3OH time=55.0 free_energy=-670.7646292487357 cutoff=8.0 nneightol=1.2 pbc="T T T"
C       -0.76242876       0.28700500       0.06198557       0.95174498      -0.56896047      -0.69944122      -0.06651185       0.01639429       0.02520201
O        0.52492443      -0.36388927       0.36856693      -1.24888342       0.85903284       0.53771082       0.05284693       0.26267971      -0.68236272
H       -1.55324636      -0.45514208      -0.17393999      -0.18312249       0.09078689       0.34014371       0.48199553       0.04889073       0.17657383
H        1.06935275      -0.31995678      -0.45441006       0.79469646       0.21327291      -0.24417644       0.28309195      -0.13663933       0.16308576
H       -1.09291756       0.86567091       0.94041189       0.13630430      -0.34211488       0.02550033       0.37321226      -0.33399391      -0.08517618
H       -0.72913815       1.00656540      -0.77916590      -0.14119799       0.00016733       0.04818154      -0.03283817      -0.12963174       0.15293296
H        2.54345366      -1.02025316       0.03655155      -0.30954183      -0.25218462      -0.00791873      -1.09179666       0.27230024       0.24974434
7
Lattice="13.0 0.0 0.0 0.0 9.0 0.0 0.0 0.0 9.0" Properties=species:S:1:pos:R:3:momenta:R:3:forces:R:3 EPS_SCF=1e-06 energy=-670.9318238880084 units=gap_units Integrated_spin_density=1.924e-05 opt_dir=/home/tks32/dft_pbe/apr_8_opt_fragments_subset/singlepoint_5_CH3OH time=55.0 free_energy=-670.9318238880084 cutoff=8.0 nneightol=1.2 pbc="T T T"
C       -0.74691716       0.28859935       0.06248002       0.95174498      -0.56896047      -0.69944122      -0.11769567      -0.31129927      -0.40284444
O        0.54172589      -0.35588958       0.33255424      -1.24888342       0.85903284       0.53771082       0.26110970       0.16464215      -0.35140461
H       -1.53193300      -0.45867033      -0.16040325      -0.18312249       0.09078689       0.34014371       0.35998238      -0.00336464       0.15451319
H        1.08325547      -0.31755693      -0.48644862       0.79469646       0.21327291      -0.24417644       0.45841628      -0.15477400       0.09536288
H       -1.06073020       0.83926448       0.94308706       0.13630430      -0.34211488       0.02550033       0.20494167      -0.02306607       0.37507102
H       -0.74246561       1.00619037      -0.77352005      -0.14119799       0.00016733       0.04818154      -0.02621969       0.04332687      -0.00672059
H        2.45706463      -1.00193735       0.08225059      -0.30954183      -0.25218462      -0.00791873      -1.14053467       0.28453496       0.13602255
7
Lattice="13.0 0.0 0.0 0.0 9.0 0.0 0.0 0.0 9.0" Properties=species:S:1:pos:R:3:momenta:R:3:forces:R:3 EPS_SCF=1e-06 energy=-671.0500234534893 units=gap_units Integrated_spin_density=1.924e-05 opt_dir=/home/tks32/dft_pbe/apr_8_opt_fragments_subset/singlepoint_5_CH3OH time=55.0 free_energy=-671.0500234534893 cutoff=8.0 nneightol=1.2 pbc="T T T"
C       -0.73503028       0.28087199       0.05092204       0.95174498      -0.56896047      -0.69944122       0.06809004       0.33757778       0.01163044
O        0.56622404      -0.34301929       0.28627348      -1.24888342       0.85903284       0.53771082       0.00836510       0.01295536       0.34888924
H       -1.49999606      -0.46227547      -0.14233615      -0.18312249       0.09078689       0.34014371      -0.39974788      -0.47639067      -0.04650061
H        1.11077584      -0.31980254      -0.51541915       0.79469646       0.21327291      -0.24417644       0.44193955      -0.00676266      -0.36561065
H       -1.02262974       0.81234594       0.95696260       0.13630430      -0.34211488       0.02550033      -0.04514381       0.04875481       0.25948182
H       -0.75648757       1.00711377      -0.76811322      -0.14119799       0.00016733       0.04818154      -0.07578109       0.21595216      -0.24206320
H        2.33714378      -0.97523440       0.13171040      -0.30954183      -0.25218462      -0.00791873       0.00227808      -0.13208678       0.03417296
7
Lattice="13.0 0.0 0.0 0.0 9.0 0.0 0.0 0.0 9.0" Properties=species:S:1:pos:R:3:momenta:R:3:forces:R:3 EPS_SCF=1e-06 energy=-671.0552968746408 units=gap_units Integrated_spin_density=1.924e-05 opt_dir=/home/tks32/dft_pbe/apr_8_opt_fragments_subset/singlepoint_5_CH3OH time=55.0 free_energy=-671.0552968746408 cutoff=8.0 nneightol=1.2 pbc="T T T"
C       -0.73466539       0.28268106       0.05098436       0.95174498      -0.56896047      -0.69944122      -0.04339796       0.20145727       0.00022435
O        0.56626886      -0.34294986       0.28814317      -1.24888342       0.85903284       0.53771082       0.08731787       0.04127128       0.17967553
H       -1.50213830      -0.46482843      -0.14258535      -0.18312249       0.09078689       0.34014371      -0.26960559      -0.35166192      -0.02190179
H        1.11314418      -0.31983878      -0.51737845       0.79469646       0.21327291      -0.24417644       0.33050273      -0.01142362      -0.20265432
H       -1.02287166       0.81260722       0.95835316       0.13630430      -0.34211488       0.02550033      -0.03311613       0.04713859       0.23393779
H       -0.75689368       1.00827105      -0.76941043      -0.14119799       0.00016733       0.04818154      -0.06345789       0.20019187      -0.21950363
H        2.33715599      -0.97594225       0.13189353      -0.30954183      -0.25218462      -0.00791873      -0.00824303      -0.12697348       0.03022207
7
Lattice="13.0 0.0 0.0 0.0 9.0 0.0 0.0 0.0 9.0" Properties=species:S:1:pos:R:3:momenta:R:3:forces:R:3 EPS_SCF=1e-06 energy=-671.0605104162028 units=gap_units Integrated_spin_density=1.924e-05 opt_dir=/home/tks32/dft_pbe/apr_8_opt_fragments_subset/singlepoint_5_CH3OH time=55.0 free_energy=-671.0605104162028 cutoff=8.0 nneightol=1.2 pbc="T T T"
C       -0.73460192       0.28553909       0.05104183       0.95174498      -0.56896047      -0.69944122      -0.19446850       0.00422351      -0.02051207
O        0.56684227      -0.34263542       0.29092278      -1.24888342       0.85903284       0.53771082       0.18590950       0.08974348      -0.07112306
H       -1.50571221      -0.46927295      -0.14294333      -0.18312249       0.09078689       0.34014371      -0.06666209      -0.15549088       0.01533716
H        1.11729336      -0.31994113      -0.52037899       0.79469646       0.21327291      -0.24417644       0.15814711      -0.01564902       0.03883757
H       -1.02329156       0.81313014       0.96103281       0.13630430      -0.34211488       0.02550033      -0.01028417       0.03620922       0.17887486
H       -0.75764658       1.01053475      -0.77191796      -0.14119799       0.00016733       0.04818154      -0.04616774       0.15863263      -0.16548036
H        2.33711666      -0.97735447       0.13224285      -0.30954183      -0.25218462      -0.00791873      -0.02647412      -0.11766894       0.02406589
7
Lattice="13.0 0.0 0.0 0.0 9.0 0.0 0.0 0.0 9.0" Properties=species:S:1:pos:R:3:momenta:R:3:forces:R:3 EPS_SCF=1e-06 energy=-671.0627409072122 units=gap_units Integrated_spin_density=1.924e-05 opt_dir=/home/tks32/dft_pbe/apr_8_opt_fragments_subset/singlepoint_5_CH3OH time=55.0 free_energy=-671.0627409072122 cutoff=8.0 nneightol=1.2 pbc="T T T"
C       -0.73597397       0.28814236       0.05094280       0.95174498      -0.56896047      -0.69944122      -0.27377004      -0.13657812      -0.04860014
O        0.56872460      -0.34169289       0.29290175      -1.24888342       0.85903284       0.53771082       0.21166213       0.14206774      -0.25720559
H       -1.50941864      -0.47441572      -0.14315280      -0.18312249       0.09078689       0.34014371       0.11918395       0.02717406       0.04704662
H        1.12218985      -0.32014826      -0.52279406       0.79469646       0.21327291      -0.24417644       0.00644038      -0.01052398       0.21944261
H       -1.02374505       0.81386687       0.96475907       0.13630430      -0.34211488       0.02550033       0.02022085       0.00476699       0.09060432
H       -0.75866348       1.01373787      -0.77539086      -0.14119799       0.00016733       0.04818154      -0.03651368       0.07914643      -0.07011248
H        2.33688669      -0.97949022       0.13273410      -0.30954183      -0.25218462      -0.00791873      -0.04722360      -0.10605312       0.01882467
7
Lattice="13.0 0.0 0.0 0.0 9.0 0.0 0.0 0.0 9.0" Properties=species:S:1:pos:R:3:momenta:R:3:forces:R:3 EPS_SCF=1e-06 energy=-671.0638630756149 units=gap_units Integrated_spin_density=1.924e-05 opt_dir=/home/tks32/dft_pbe/apr_8_opt_fragments_subset/singlepoint_5_CH3OH time=55.0 free_energy=-671.0638630756149 cutoff=8.0 nneightol=1.2 pbc="T T T"
C       -0.73922121       0.28948135       0.05049643       0.95174498      -0.56896047      -0.69944122      -0.21878016      -0.15104397      -0.07390143
O        0.57197457      -0.33980032       0.29279217      -1.24888342       0.85903284       0.53771082       0.12309463       0.17853531      -0.27625142
H       -1.51187834      -0.47884447      -0.14299550      -0.18312249       0.09078689       0.34014371       0.21750433       0.12874777       0.05956776
H        1.12664404      -0.32041203      -0.52335456       0.79469646       0.21327291      -0.24417644      -0.06400091       0.00810292       0.24263558
H       -1.02400456       0.81456498       0.96877870       0.13630430      -0.34211488       0.02550033       0.04978850      -0.04527404      -0.01678982
H       -0.75984709       1.01720247      -0.77903185      -0.14119799       0.00016733       0.04818154      -0.04307184      -0.02413878       0.04774059
H        2.33633260      -0.98219197       0.13331460      -0.30954183      -0.25218462      -0.00791873      -0.06453455      -0.09492922       0.01699874
7
Lattice="13.0 0.0 0.0 0.0 9.0 0.0 0.0 0.0 9.0" Properties=species:S:1:pos:R:3:momenta:R:3:forces:R:3 EPS_SCF=1e-06 energy=-671.0643149422447 units=gap_units Integrated_spin_density=1.924e-05 opt_dir=/home/tks32/dft_pbe/apr_8_opt_fragments_subset/singlepoint_5_CH3OH time=55.0 free_energy=-671.0643149422447 cutoff=8.0 nneightol=1.2 pbc="T T T"
C       -0.73951432       0.28927899       0.05039742       0.95174498      -0.56896047      -0.69944122      -0.19581044      -0.13232942      -0.07081397
O        0.57213948      -0.33956113       0.29242206      -1.24888342       0.85903284       0.53771082       0.10648779       0.17508399      -0.24847046
H       -1.51158694      -0.47867198      -0.14291569      -0.18312249       0.09078689       0.34014371       0.20088767       0.11302621       0.05577447
H        1.12655830      -0.32040118      -0.52302949       0.79469646       0.21327291      -0.24417644      -0.05080167       0.01030033       0.21665126
H       -1.02393785       0.81450432       0.96875621       0.13630430      -0.34211488       0.02550033       0.04864349      -0.04680425      -0.01757885
H       -0.75990479       1.01717013      -0.77896789      -0.14119799       0.00016733       0.04818154      -0.04566442      -0.02418925       0.04689656
H        2.33624614      -0.98231915       0.13333737      -0.30954183      -0.25218462      -0.00791873      -0.06374242      -0.09508761       0.01754100
7
Lattice="13.0 0.0 0.0 0.0 9.0 0.0 0.0 0.0 9.0" Properties=species:S:1:pos:R:3:momenta:R:3:forces:R:3 EPS_SCF=1e-06 energy=-671.0650639074294 units=gap_units Integrated_spin_density=1.924e-05 opt_dir=/home/tks32/dft_pbe/apr_8_opt_fragments_subset/singlepoint_5_CH3OH time=55.0 free_energy=-671.0650639074294 cutoff=8.0 nneightol=1.2 pbc="T T T"
C       -0.74006922       0.28890014       0.05020304       0.95174498      -0.56896047      -0.69944122      -0.15209449      -0.09704877      -0.06457940
O        0.57244621      -0.33908557       0.29171958      -1.24888342       0.85903284       0.53771082       0.07541135       0.16843731      -0.19592213
H       -1.51102604      -0.47834871      -0.14276095      -0.18312249       0.09078689       0.34014371       0.16907659       0.08302291       0.04846892
H        1.12640560      -0.32037609      -0.52241485       0.79469646       0.21327291      -0.24417644      -0.02591113       0.01444488       0.16752022
H       -1.02380550       0.81438015       0.96870983       0.13630430      -0.34211488       0.02550033       0.04631943      -0.04953084      -0.01893903
H       -0.76002461       1.01710507      -0.77884061      -0.14119799       0.00016733       0.04818154      -0.05057767      -0.02395041       0.04489611
H        2.33607357      -0.98257497       0.13338394      -0.30954183      -0.25218462      -0.00791873      -0.06222408      -0.09537510       0.01855530
7
Lattice="13.0 0.0 0.0 0.0 9.0 0.0 0.0 0.0 9.0" Properties=species:S:1:pos:R:3:momenta:R:3:forces:R:3 EPS_SCF=1e-06 energy=-671.0658653042277 units=gap_units Integrated_spin_density=1.924e-05 opt_dir=/home/tks32/dft_pbe/apr_8_opt_fragments_subset/singlepoint_5_CH3OH time=55.0 free_energy=-671.0658653042277 cutoff=8.0 nneightol=1.2 pbc="T T T"
C       -0.74082422       0.28839608       0.04991957       0.95174498      -0.56896047      -0.69944122      -0.09210018      -0.04955094      -0.05509647
O        0.57284900      -0.33837451       0.29075810      -1.24888342       0.85903284       0.53771082       0.03420265       0.15905599      -0.12460526
H       -1.51023709      -0.47791825      -0.14254023      -0.18312249       0.09078689       0.34014371       0.12492817       0.04164341       0.03821430
H        1.12622463      -0.32032924      -0.52158015       0.79469646       0.21327291      -0.24417644       0.00761420       0.02005799       0.10091533
H       -1.02360855       0.81418516       0.96863627       0.13630430      -0.34211488       0.02550033       0.04272884      -0.05276391      -0.02040920
H       -0.76021745       1.01700626      -0.77865061      -0.14119799       0.00016733       0.04818154      -0.05727488      -0.02270905       0.04108157
H        2.33581368      -0.98296549       0.13345704      -0.30954183      -0.25218462      -0.00791873      -0.06009880      -0.09573347       0.01989974
7
Lattice="13.0 0.0 0.0 0.0 9.0 0.0 0.0 0.0 9.0" Properties=species:S:1:pos:R:3:momenta:R:3:forces:R:3 EPS_SCF=1e-06 energy=-671.0664930848184 units=gap_units Integrated_spin_density=1.924e-05 opt_dir=/home/tks32/dft_pbe/apr_8_opt_fragments_subset/singlepoint_5_CH3OH time=55.0 free_energy=-671.0664930848184 cutoff=8.0 nneightol=1.2 pbc="T T T"
C       -0.74168610       0.28784431       0.04955534       0.95174498      -0.56896047      -0.69944122      -0.02279421       0.00337539      -0.04231150
O        0.57327924      -0.33741958       0.28964602      -1.24888342       0.85903284       0.53771082      -0.01035637       0.14754144      -0.04367156
H       -1.50927964      -0.47744837      -0.14226591      -0.18312249       0.09078689       0.34014371       0.07291313      -0.00655001       0.02589439
H        1.12607684      -0.32024736      -0.52062908       0.79469646       0.21327291      -0.24417644       0.04499164       0.02645489       0.02554418
H       -1.02334668       0.81390518       0.96852964       0.13630430      -0.34211488       0.02550033       0.03770781      -0.05540605      -0.02123226
H       -0.76050442       1.01687236      -0.77839825      -0.14119799       0.00016733       0.04818154      -0.06494080      -0.01934043       0.03442316
H        2.33546077      -0.98350653       0.13356224      -0.30954183      -0.25218462      -0.00791873      -0.05752120      -0.09607521       0.02135359
