7
Lattice="13.0 0.0 0.0 0.0 9.0 0.0 0.0 0.0 9.0" Properties=species:S:1:pos:R:3:momenta:R:3:forces:R:3 EPS_SCF=1e-06 energy=-670.7830853960245 units=gap_units Integrated_spin_density=1.924e-05 opt_dir=/home/tks32/dft_pbe/apr_8_opt_fragments_subset/singlepoint_5_CH3OH time=35.0 free_energy=-670.7830853960245 cutoff=8.0 nneightol=1.2 pbc="T T T"
C       -0.63058121       0.39215541      -0.01536130       0.16432131       0.01306400      -0.39296646      -0.66386431      -1.38458700       0.17454759
O        0.62426239      -0.46926131       0.06821305       1.06591612       0.74521249       1.07881961       0.11141915       3.57648005      -0.19602369
H       -1.58024679      -0.22377469      -0.05285515      -0.33400303      -0.00688212       0.22199701       1.00968085       0.43966044      -0.19622783
H        0.49728266      -1.38576884       0.06117265      -0.00313487      -0.02209186      -0.69494848      -0.46447037      -2.56558183      -0.07785689
H       -0.66412917       0.98535780       0.89978099      -0.25882815       0.32308538       0.06201105      -0.01704464       0.38104983       0.51601498
H       -0.55869718       1.08564279      -0.87140203      -0.18397695      -0.00888003       0.03510600       0.11970983      -0.14138933      -0.22237333
H        2.31210929      -0.38435118      -0.08954821      -0.45029443      -1.04350786      -0.31001873      -0.09543050      -0.30563217       0.00191918
7
Lattice="13.0 0.0 0.0 0.0 9.0 0.0 0.0 0.0 9.0" Properties=species:S:1:pos:R:3:momenta:R:3:forces:R:3 EPS_SCF=1e-06 energy=-670.8860828294653 units=gap_units Integrated_spin_density=1.924e-05 opt_dir=/home/tks32/dft_pbe/apr_8_opt_fragments_subset/singlepoint_5_CH3OH time=35.0 free_energy=-670.8860828294653 cutoff=8.0 nneightol=1.2 pbc="T T T"
C       -0.63721985       0.37830954      -0.01361582       0.16432131       0.01306400      -0.39296646      -0.03941228       0.05999725       0.19914983
O        0.62537658      -0.43349651       0.06625281       1.06591612       0.74521249       1.07881961      -0.41921167      -0.14538290      -0.18186067
H       -1.57014998      -0.21937809      -0.05481743      -0.33400303      -0.00688212       0.22199701       0.42108503      -0.03654455      -0.18883479
H        0.49263796      -1.41142466       0.06039408      -0.00313487      -0.02209186      -0.69494848       0.14572265       0.52041262      -0.03579429
H       -0.66429962       0.98916830       0.90494114      -0.25882815       0.32308538       0.06201105      -0.15935633       0.17653886       0.22857832
H       -0.55750008       1.08422890      -0.87362576      -0.18397695      -0.00888003       0.03510600      -0.03393492      -0.31461663       0.00034990
H        2.31115498      -0.38740750      -0.08952902      -0.45029443      -1.04350786      -0.31001873       0.08510753      -0.26040464      -0.02158830
7
Lattice="13.0 0.0 0.0 0.0 9.0 0.0 0.0 0.0 9.0" Properties=species:S:1:pos:R:3:momenta:R:3:forces:R:3 EPS_SCF=1e-06 energy=-670.8886394878183 units=gap_units Integrated_spin_density=1.924e-05 opt_dir=/home/tks32/dft_pbe/apr_8_opt_fragments_subset/singlepoint_5_CH3OH time=35.0 free_energy=-670.8886394878183 cutoff=8.0 nneightol=1.2 pbc="T T T"
C       -0.63731838       0.37845953      -0.01311795       0.16432131       0.01306400      -0.39296646      -0.02268920       0.05766477       0.19748581
O        0.62432855      -0.43385997       0.06579816       1.06591612       0.74521249       1.07881961      -0.38723403      -0.06234915      -0.17738745
H       -1.56909727      -0.21946945      -0.05528952      -0.33400303      -0.00688212       0.22199701       0.39335602      -0.04515474      -0.18370318
H        0.49300226      -1.41012363       0.06030460      -0.00313487      -0.02209186      -0.69494848       0.12746600       0.44498380      -0.03535165
H       -0.66469801       0.98960965       0.90551259      -0.25882815       0.32308538       0.06201105      -0.15843048       0.17011268       0.21919394
H       -0.55758492       1.08344236      -0.87362489      -0.18397695      -0.00888003       0.03510600      -0.03471554      -0.30380293       0.00051628
H        2.31136775      -0.38805851      -0.08958299      -0.45029443      -1.04350786      -0.31001873       0.08224723      -0.26145442      -0.02075375
7
Lattice="13.0 0.0 0.0 0.0 9.0 0.0 0.0 0.0 9.0" Properties=species:S:1:pos:R:3:momenta:R:3:forces:R:3 EPS_SCF=1e-06 energy=-670.8929832393494 units=gap_units Integrated_spin_density=1.924e-05 opt_dir=/home/tks32/dft_pbe/apr_8_opt_fragments_subset/singlepoint_5_CH3OH time=35.0 free_energy=-670.8929832393494 cutoff=8.0 nneightol=1.2 pbc="T T T"
C       -0.63746994       0.37875434      -0.01212255       0.16432131       0.01306400      -0.39296646       0.00710769       0.05432915       0.19316319
O        0.62231215      -0.43435987       0.06489736       1.06591612       0.74521249       1.07881961      -0.32717570       0.08359133      -0.16859171
H       -1.56705968      -0.21967681      -0.05622351      -0.33400303      -0.00688212       0.22199701       0.34106693      -0.06138219      -0.17340610
H        0.49368340      -1.40771947       0.06012608      -0.00313487      -0.02209186      -0.69494848       0.09496960       0.31089465      -0.03410706
H       -0.66549563       0.99047831       0.90663436      -0.25882815       0.32308538       0.06201105      -0.15699714       0.15803393       0.20146291
H       -0.55775748       1.08189251      -0.87362267      -0.18397695      -0.00888003       0.03510600      -0.03643262      -0.28218786       0.00076718
H        2.31178719      -0.38936902      -0.08968908      -0.45029443      -1.04350786      -0.31001873       0.07746123      -0.26327901      -0.01928841
7
Lattice="13.0 0.0 0.0 0.0 9.0 0.0 0.0 0.0 9.0" Properties=species:S:1:pos:R:3:momenta:R:3:forces:R:3 EPS_SCF=1e-06 energy=-670.8981002097458 units=gap_units Integrated_spin_density=1.924e-05 opt_dir=/home/tks32/dft_pbe/apr_8_opt_fragments_subset/singlepoint_5_CH3OH time=35.0 free_energy=-670.8981002097458 cutoff=8.0 nneightol=1.2 pbc="T T T"
C       -0.63758432       0.37918798      -0.01062827       0.16432131       0.01306400      -0.39296646       0.04243819       0.05225405       0.18420278
O        0.61948379      -0.43455082       0.06356435       1.06591612       0.74521249       1.07881961      -0.24644710       0.25191030      -0.15563250
H       -1.56416922      -0.22005361      -0.05760132      -0.33400303      -0.00688212       0.22199701       0.27064778      -0.08299221      -0.15783254
H        0.49459064      -1.40459257       0.05985976      -0.00313487      -0.02209186      -0.69494848       0.05595755       0.15206353      -0.03144595
H       -0.66669988       0.99174970       0.90826809      -0.25882815       0.32308538       0.06201105      -0.15583195       0.14180122       0.17736954
H       -0.55802566       1.07962342      -0.87361830      -0.18397695      -0.00888003       0.03510600      -0.03942244      -0.24970751       0.00093010
H        2.31240465      -0.39136412      -0.08984432      -0.45029443      -1.04350786      -0.31001873       0.07265798      -0.26532939      -0.01759143
7
Lattice="13.0 0.0 0.0 0.0 9.0 0.0 0.0 0.0 9.0" Properties=species:S:1:pos:R:3:momenta:R:3:forces:R:3 EPS_SCF=1e-06 energy=-670.9033816568106 units=gap_units Integrated_spin_density=1.924e-05 opt_dir=/home/tks32/dft_pbe/apr_8_opt_fragments_subset/singlepoint_5_CH3OH time=35.0 free_energy=-670.9033816568106 cutoff=8.0 nneightol=1.2 pbc="T T T"
C       -0.63754070       0.37975872      -0.00864723       0.16432131       0.01306400      -0.39296646       0.07169038       0.05384938       0.16802754
O        0.61608710      -0.43385264       0.06182712       1.06591612       0.74521249       1.07881961      -0.15431764       0.38647484      -0.13857537
H       -1.56063306      -0.22067935      -0.05938646      -0.33400303      -0.00688212       0.22199701       0.19191623      -0.10611975      -0.13691935
H        0.49560041      -1.40125318       0.05951146      -0.00313487      -0.02209186      -0.69494848       0.02051543       0.01564441      -0.02678112
H       -0.66832190       0.99338369       0.91035104      -0.25882815       0.32308538       0.06201105      -0.15584495       0.12349077       0.14966856
H       -0.55840317       1.07671883      -0.87361115      -0.18397695      -0.00888003       0.03510600      -0.04415003      -0.20647784       0.00075726
H        2.31321131      -0.39407608      -0.09004479      -0.45029443      -1.04350786      -0.31001873       0.07019059      -0.26686180      -0.01617751
7
Lattice="13.0 0.0 0.0 0.0 9.0 0.0 0.0 0.0 9.0" Properties=species:S:1:pos:R:3:momenta:R:3:forces:R:3 EPS_SCF=1e-06 energy=-670.9087633628886 units=gap_units Integrated_spin_density=1.924e-05 opt_dir=/home/tks32/dft_pbe/apr_8_opt_fragments_subset/singlepoint_5_CH3OH time=35.0 free_energy=-670.9087633628886 cutoff=8.0 nneightol=1.2 pbc="T T T"
C       -0.63723322       0.38047386      -0.00623564       0.16432131       0.01306400      -0.39296646       0.08212564       0.05977554       0.14260459
O        0.61245272      -0.43177835       0.05974515       1.06591612       0.74521249       1.07881961      -0.06003250       0.43487838      -0.11743456
H       -1.55673249      -0.22163956      -0.06150534      -0.33400303      -0.00688212       0.22199701       0.11679815      -0.12549749      -0.11096373
H        0.49658597      -1.39818919       0.05909780      -0.00313487      -0.02209186      -0.69494848      -0.00238920      -0.05375956      -0.01998000
H       -0.67036479       0.99531630       0.91278565      -0.25882815       0.32308538       0.06201105      -0.15762841       0.10522347       0.12129899
H       -0.55890812       1.07333218      -0.87360188      -0.18397695      -0.00888003       0.03510600      -0.05101206      -0.15344127       0.00001218
H        2.31419991      -0.39751527      -0.09028574      -0.45029443      -1.04350786      -0.31001873       0.07213839      -0.26717907      -0.01553747
7
Lattice="13.0 0.0 0.0 0.0 9.0 0.0 0.0 0.0 9.0" Properties=species:S:1:pos:R:3:momenta:R:3:forces:R:3 EPS_SCF=1e-06 energy=-670.9141847052781 units=gap_units Integrated_spin_density=1.924e-05 opt_dir=/home/tks32/dft_pbe/apr_8_opt_fragments_subset/singlepoint_5_CH3OH time=35.0 free_energy=-670.9141847052781 cutoff=8.0 nneightol=1.2 pbc="T T T"
C       -0.63662811       0.38135650      -0.00349502       0.16432131       0.01306400      -0.39296646       0.06509368       0.06761222       0.10754401
O        0.60894175      -0.42817264       0.05740183       1.06591612       0.74521249       1.07881961       0.02978849       0.37424878      -0.09223173
H       -1.55275497      -0.22300554      -0.06385603      -0.33400303      -0.00688212       0.22199701       0.05586590      -0.13584370      -0.08069117
H        0.49746342      -1.39564656       0.05864561      -0.00313487      -0.02209186      -0.69494848      -0.00888343      -0.03571085      -0.01154545
H       -0.67283366       0.99747639       0.91546182      -0.25882815       0.32308538       0.06201105      -0.16104669       0.08820645       0.09425030
H       -0.55956653       1.06967067      -0.87359349      -0.18397695      -0.00888003       0.03510600      -0.06013312      -0.09257532      -0.00136335
H        2.31537809      -0.40167885      -0.09056471      -0.45029443      -1.04350786      -0.31001873       0.07931517      -0.26593757      -0.01596261
7
Lattice="13.0 0.0 0.0 0.0 9.0 0.0 0.0 0.0 9.0" Properties=species:S:1:pos:R:3:momenta:R:3:forces:R:3 EPS_SCF=1e-06 energy=-670.9191594657686 units=gap_units Integrated_spin_density=1.924e-05 opt_dir=/home/tks32/dft_pbe/apr_8_opt_fragments_subset/singlepoint_5_CH3OH time=35.0 free_energy=-670.9191594657686 cutoff=8.0 nneightol=1.2 pbc="T T T"
C       -0.63579656       0.38244892      -0.00055438       0.16432131       0.01306400      -0.39296646       0.01992020       0.07197672       0.06449968
O        0.60591318      -0.42327773       0.05488626       1.06591612       0.74521249       1.07881961       0.11108402       0.22265025      -0.06324545
H       -1.54892893      -0.22483374      -0.06632734      -0.33400303      -0.00688212       0.22199701       0.01584681      -0.13321874      -0.04718122
H        0.49821396      -1.39351561       0.05818775      -0.00313487      -0.02209186      -0.69494848      -0.00106452       0.05669511      -0.00234195
H       -0.67576556       0.99980930       0.91828584      -0.25882815       0.32308538       0.06201105      -0.16512961       0.07205041       0.06876520
H       -0.56042419       1.06596722      -0.87359195      -0.18397695      -0.00888003       0.03510600      -0.07121430      -0.02690493      -0.00301972
H        2.31678810      -0.40659837      -0.09088616      -0.45029443      -1.04350786      -0.31001873       0.09055740      -0.26324883      -0.01747655
7
Lattice="13.0 0.0 0.0 0.0 9.0 0.0 0.0 0.0 9.0" Properties=species:S:1:pos:R:3:momenta:R:3:forces:R:3 EPS_SCF=1e-06 energy=-670.9235516999936 units=gap_units Integrated_spin_density=1.924e-05 opt_dir=/home/tks32/dft_pbe/apr_8_opt_fragments_subset/singlepoint_5_CH3OH time=35.0 free_energy=-670.9235516999936 cutoff=8.0 nneightol=1.2 pbc="T T T"
C       -0.63485736       0.38394945       0.00273236       0.16432131       0.01306400      -0.39296646      -0.04980369       0.06457399       0.01265002
O        0.60356162      -0.41713555       0.05202764       1.06591612       0.74521249       1.07881961       0.18567212       0.01996230      -0.02827473
H       -1.54504889      -0.22741924      -0.06904863      -0.33400303      -0.00688212       0.22199701      -0.00271111      -0.11399364      -0.00846241
H        0.49895080      -1.39107591       0.05772083      -0.00313487      -0.02209186      -0.69494848       0.01595677       0.19052269       0.00778592
H       -0.67962951       1.00253834       0.92148195      -0.25882815       0.32308538       0.06201105      -0.16833058       0.05253831       0.04029804
H       -0.56168786       1.06214418      -0.87360801      -0.18397695      -0.00888003       0.03510600      -0.08459224       0.04559457      -0.00385566
H        2.31871121      -0.41300128      -0.09130614      -0.45029443      -1.04350786      -0.31001873       0.10380873      -0.25919822      -0.02014118
7
Lattice="13.0 0.0 0.0 0.0 9.0 0.0 0.0 0.0 9.0" Properties=species:S:1:pos:R:3:momenta:R:3:forces:R:3 EPS_SCF=1e-06 energy=-670.927541262204 units=gap_units Integrated_spin_density=1.924e-05 opt_dir=/home/tks32/dft_pbe/apr_8_opt_fragments_subset/singlepoint_5_CH3OH time=35.0 free_energy=-670.927541262204 cutoff=8.0 nneightol=1.2 pbc="T T T"
C       -0.63427307       0.38588595       0.00607787       0.16432131       0.01306400      -0.39296646      -0.11476164       0.03801730      -0.03929779
O        0.60252293      -0.41090914       0.04899772       1.06591612       0.74521249       1.07881961       0.24189928      -0.12173032       0.00928725
H       -1.54122225      -0.23077493      -0.07180458      -0.33400303      -0.00688212       0.22199701      -0.00477316      -0.08115171       0.03164793
H        0.49979211      -1.38733221       0.05731224      -0.00313487      -0.02209186      -0.69494848       0.03054160       0.27963898       0.01837022
H       -0.68463035       1.00560867       0.92493003      -0.25882815       0.32308538       0.06201105      -0.16746739       0.02457610       0.00447161
H       -0.56352891       1.05867241      -0.87365075      -0.18397695      -0.00888003       0.03510600      -0.09819133       0.11519115      -0.00094920
H        2.32133953      -0.42115077      -0.09186253      -0.45029443      -1.04350786      -0.31001873       0.11275264      -0.25454150      -0.02353001
7
Lattice="13.0 0.0 0.0 0.0 9.0 0.0 0.0 0.0 9.0" Properties=species:S:1:pos:R:3:momenta:R:3:forces:R:3 EPS_SCF=1e-06 energy=-670.9324313699633 units=gap_units Integrated_spin_density=1.924e-05 opt_dir=/home/tks32/dft_pbe/apr_8_opt_fragments_subset/singlepoint_5_CH3OH time=35.0 free_energy=-670.9324313699633 cutoff=8.0 nneightol=1.2 pbc="T T T"
C       -0.63455374       0.38809235       0.00910262       0.16432131       0.01306400      -0.39296646      -0.13590368      -0.00219314      -0.08027008
O        0.60330594      -0.40564400       0.04606110       1.06591612       0.74521249       1.07881961       0.26479593      -0.11054296       0.04405094
H       -1.53746129      -0.23471282      -0.07430173      -0.33400303      -0.00688212       0.22199701      -0.00434744      -0.04595710       0.06717005
H        0.50085583      -1.38152123       0.05704457      -0.00313487      -0.02209186      -0.69494848       0.03384267       0.25429036       0.02946659
H       -0.69084767       1.00883927       0.92838470      -0.25882815       0.32308538       0.06201105      -0.16076775      -0.01560091      -0.04178008
H       -0.56609173       1.05609138      -0.87370028      -0.18397695      -0.00888003       0.03510600      -0.11012868       0.16979338       0.00856995
H        2.32479265      -0.43114498      -0.09259098      -0.45029443      -1.04350786      -0.31001873       0.11250896      -0.24978963      -0.02720737
7
Lattice="13.0 0.0 0.0 0.0 9.0 0.0 0.0 0.0 9.0" Properties=species:S:1:pos:R:3:momenta:R:3:forces:R:3 EPS_SCF=1e-06 energy=-670.9388427237562 units=gap_units Integrated_spin_density=1.924e-05 opt_dir=/home/tks32/dft_pbe/apr_8_opt_fragments_subset/singlepoint_5_CH3OH time=35.0 free_energy=-670.9388427237562 cutoff=8.0 nneightol=1.2 pbc="T T T"
C       -0.63600624       0.39026495       0.01141375       0.16432131       0.01306400      -0.39296646      -0.08705779      -0.03617704      -0.10150673
O        0.60637058      -0.40136901       0.04352470       1.06591612       0.74521249       1.07881961       0.23918536       0.05894379       0.07135982
H       -1.53376320      -0.23902110      -0.07620195      -0.33400303      -0.00688212       0.22199701      -0.01327067      -0.02175548       0.09108258
H        0.50220467      -1.37355320       0.05703319      -0.00313487      -0.02209186      -0.69494848       0.02704040       0.11203659       0.04090122
H       -0.69841160       1.01191338       0.93145527      -0.25882815       0.32308538       0.06201105      -0.14868998      -0.06709316      -0.09641893
H       -0.56958843       1.05499414      -0.87367545      -0.18397695      -0.00888003       0.03510600      -0.12014456       0.19850457       0.02572914
H        2.32919421      -0.44322919      -0.09354951      -0.45029443      -1.04350786      -0.31001873       0.10293724      -0.24445927      -0.03114710
7
Lattice="13.0 0.0 0.0 0.0 9.0 0.0 0.0 0.0 9.0" Properties=species:S:1:pos:R:3:momenta:R:3:forces:R:3 EPS_SCF=1e-06 energy=-670.9465015918314 units=gap_units Integrated_spin_density=1.924e-05 opt_dir=/home/tks32/dft_pbe/apr_8_opt_fragments_subset/singlepoint_5_CH3OH time=35.0 free_energy=-670.9465015918314 cutoff=8.0 nneightol=1.2 pbc="T T T"
C       -0.63837015       0.39204309       0.01263953       0.16432131       0.01306400      -0.39296646       0.01897169      -0.03653005      -0.10156656
O        0.61194448      -0.39649559       0.04175647       1.06591612       0.74521249       1.07881961       0.15621674       0.25321734       0.09031312
H       -1.53022624      -0.24353479      -0.07712926      -0.33400303      -0.00688212       0.22199701      -0.03004699      -0.01625582       0.09649934
H        0.50383150      -1.36444682       0.05745393      -0.00313487      -0.02209186      -0.69494848       0.02726014      -0.04026299       0.05033138
H       -0.70750336       1.01426134       0.93348993      -0.25882815       0.32308538       0.06201105      -0.13599800      -0.11778736      -0.14497160
H       -0.57433446       1.05600002      -0.87337898      -0.18397695      -0.00888003       0.03510600      -0.12986310       0.19591691       0.04608040
H        2.33465821      -0.45782728      -0.09483162      -0.45029443      -1.04350786      -0.31001873       0.09345952      -0.23829803      -0.03668609
7
Lattice="13.0 0.0 0.0 0.0 9.0 0.0 0.0 0.0 9.0" Properties=species:S:1:pos:R:3:momenta:R:3:forces:R:3 EPS_SCF=1e-06 energy=-670.9564101113039 units=gap_units Integrated_spin_density=1.924e-05 opt_dir=/home/tks32/dft_pbe/apr_8_opt_fragments_subset/singlepoint_5_CH3OH time=35.0 free_energy=-670.9564101113039 cutoff=8.0 nneightol=1.2 pbc="T T T"
C       -0.64048971       0.39336351       0.01260984       0.16432131       0.01306400      -0.39296646       0.11023805      -0.00551141      -0.09078216
O        0.61941501      -0.38852869       0.04110773       1.06591612       0.74521249       1.07881961       0.02624346       0.26043384       0.10495287
H       -1.52707532      -0.24822770      -0.07686483      -0.33400303      -0.00688212       0.22199701      -0.02808830      -0.01730186       0.08117632
H        0.50578629      -1.35587786       0.05849209      -0.00313487      -0.02209186      -0.69494848       0.05942734      -0.03150681       0.05336959
H       -0.71822673       1.01514906       0.93373128      -0.25882815       0.32308538       0.06201105      -0.12547751      -0.14428697      -0.16074083
H       -0.58065663       1.05941210      -0.87251684      -0.18397695      -0.00888003       0.03510600      -0.13898411       0.16962229       0.05712406
H        2.34124708      -0.47529044      -0.09655926      -0.45029443      -1.04350786      -0.31001873       0.09664107      -0.23144907      -0.04509986
7
Lattice="13.0 0.0 0.0 0.0 9.0 0.0 0.0 0.0 9.0" Properties=species:S:1:pos:R:3:momenta:R:3:forces:R:3 EPS_SCF=1e-06 energy=-670.9689268158419 units=gap_units Integrated_spin_density=1.924e-05 opt_dir=/home/tks32/dft_pbe/apr_8_opt_fragments_subset/singlepoint_5_CH3OH time=35.0 free_energy=-670.9689268158419 cutoff=8.0 nneightol=1.2 pbc="T T T"
C       -0.64097599       0.39459795       0.01124144       0.16432131       0.01306400      -0.39296646       0.10312318       0.00546273      -0.07818898
O        0.62724595      -0.37674944       0.04200910       1.06591612       0.74521249       1.07881961      -0.10708733       0.05922418       0.11480202
H       -1.52434986      -0.25315906      -0.07540420      -0.33400303      -0.00688212       0.22199701       0.02534113       0.00035640       0.04591197
H        0.50861052      -1.34780407       0.06031361      -0.00313487      -0.02209186      -0.69494848       0.11911896       0.15424825       0.04836426
H       -0.73076237       1.01390574       0.93160124      -0.25882815       0.32308538       0.06201105      -0.11301399      -0.12512427      -0.12091069
H       -0.58900594       1.06531353      -0.87081533      -0.18397695      -0.00888003       0.03510600      -0.13975332       0.13180373       0.04574656
H        2.34923768      -0.49610467      -0.09894586      -0.45029443      -1.04350786      -0.31001873       0.11227138      -0.22597103      -0.05572514
7
Lattice="13.0 0.0 0.0 0.0 9.0 0.0 0.0 0.0 9.0" Properties=species:S:1:pos:R:3:momenta:R:3:forces:R:3 EPS_SCF=1e-06 energy=-670.9835352279115 units=gap_units Integrated_spin_density=1.924e-05 opt_dir=/home/tks32/dft_pbe/apr_8_opt_fragments_subset/singlepoint_5_CH3OH time=35.0 free_energy=-670.9835352279115 cutoff=8.0 nneightol=1.2 pbc="T T T"
C       -0.63955967       0.39592999       0.00843488       0.16432131       0.01306400      -0.39296646      -0.00604979      -0.03813056      -0.05275628
O        0.63308264      -0.36390799       0.04502488       1.06591612       0.74521249       1.07881961      -0.15203287      -0.03224474       0.10623015
H       -1.52116405      -0.25807139      -0.07310074      -0.33400303      -0.00688212       0.22199701       0.10825747       0.03335213      -0.00922956
H        0.51362389      -1.33690670       0.06302225      -0.00313487      -0.02209186      -0.69494848       0.14410380       0.24258328       0.04075121
H       -0.74535005       1.01035855       0.92724727      -0.25882815       0.32308538       0.06201105      -0.09101163      -0.06504612      -0.03673712
H       -0.59991090       1.07363021      -0.86827466      -0.18397695      -0.00888003       0.03510600      -0.12016566       0.08270446       0.01596351
H        2.35927813      -0.52103271      -0.10235387      -0.45029443      -1.04350786      -0.31001873       0.11689868      -0.22321845      -0.06422190
7
Lattice="13.0 0.0 0.0 0.0 9.0 0.0 0.0 0.0 9.0" Properties=species:S:1:pos:R:3:momenta:R:3:forces:R:3 EPS_SCF=1e-06 energy=-671.000140389519 units=gap_units Integrated_spin_density=1.924e-05 opt_dir=/home/tks32/dft_pbe/apr_8_opt_fragments_subset/singlepoint_5_CH3OH time=35.0 free_energy=-671.000140389519 cutoff=8.0 nneightol=1.2 pbc="T T T"
C       -0.63827977       0.39641364       0.00446148       0.16432131       0.01306400      -0.39296646      -0.07770753      -0.02352464       0.00710092
O        0.63553584      -0.35180157       0.05039416       1.06591612       0.74521249       1.07881961      -0.05814416       0.19347784       0.07059358
H       -1.51558000      -0.26223600      -0.07100562      -0.33400303      -0.00688212       0.22199701       0.10720665       0.01206487      -0.07985973
H        0.52182846      -1.32064098       0.06663140      -0.00313487      -0.02209186      -0.69494848       0.09373633       0.04069754       0.03506386
H       -0.76193605       1.00537284       0.92208437      -0.25882815       0.32308538       0.06201105      -0.06389351      -0.01095633       0.02992780
H       -0.61346683       1.08377021      -0.86538345      -0.18397695      -0.00888003       0.03510600      -0.08680609       0.00506352       0.00182818
H        2.37189834      -0.55087816      -0.10718232      -0.45029443      -1.04350786      -0.31001873       0.08560832      -0.21682279      -0.06465461
7
Lattice="13.0 0.0 0.0 0.0 9.0 0.0 0.0 0.0 9.0" Properties=species:S:1:pos:R:3:momenta:R:3:forces:R:3 EPS_SCF=1e-06 energy=-671.0164249996135 units=gap_units Integrated_spin_density=1.924e-05 opt_dir=/home/tks32/dft_pbe/apr_8_opt_fragments_subset/singlepoint_5_CH3OH time=35.0 free_energy=-671.0164249996135 cutoff=8.0 nneightol=1.2 pbc="T T T"
C       -0.63926215       0.39621237       0.00069668       0.16432131       0.01306400      -0.39296646      -0.01368180       0.14636787       0.07399064
O        0.63629558      -0.33406994       0.05781542       1.06591612       0.74521249       1.07881961       0.08461989       0.21578334       0.02994424
H       -1.50687846      -0.26604745      -0.07123581      -0.33400303      -0.00688212       0.22199701      -0.03115569      -0.10161970      -0.14443382
H        0.53275720      -1.30319870       0.07125931      -0.00313487      -0.02209186      -0.69494848       0.05320702      -0.00476044       0.02593560
H       -0.78037356       1.00007068       0.91779502      -0.25882815       0.32308538       0.06201105      -0.05146830       0.01868349       0.05646421
H       -0.62954263       1.09405265      -0.86244045      -0.18397695      -0.00888003       0.03510600      -0.07243869      -0.07671070       0.01210897
H        2.38700401      -0.58701964      -0.11389018      -0.45029443      -1.04350786      -0.31001873       0.03091757      -0.19774384      -0.05400984
7
Lattice="13.0 0.0 0.0 0.0 9.0 0.0 0.0 0.0 9.0" Properties=species:S:1:pos:R:3:momenta:R:3:forces:R:3 EPS_SCF=1e-06 energy=-671.0327233915103 units=gap_units Integrated_spin_density=1.924e-05 opt_dir=/home/tks32/dft_pbe/apr_8_opt_fragments_subset/singlepoint_5_CH3OH time=35.0 free_energy=-671.0327233915103 cutoff=8.0 nneightol=1.2 pbc="T T T"
C       -0.64070773       0.40096097      -0.00056780       0.16432131       0.01306400      -0.39296646      -0.06311111       0.03727028       0.07296542
O        0.63991744      -0.30903161       0.06625321       1.06591612       0.74521249       1.07881961       0.17192546      -0.07421478       0.00102260
H       -1.49922605      -0.27329751      -0.07635068      -0.33400303      -0.00688212       0.22199701      -0.02232334      -0.08319618      -0.15677806
H        0.54549100      -1.28590838       0.07676673      -0.00313487      -0.02209186      -0.69494848       0.05074273       0.26578541       0.01765836
H       -0.80056122       0.99539762       0.91541299      -0.25882815       0.32308538       0.06201105      -0.03312170       0.07547988       0.11546951
H       -0.64807653       1.10174617      -0.85908641      -0.18397695      -0.00888003       0.03510600      -0.06266551      -0.05888015      -0.01980871
H        2.40316309      -0.62986727      -0.12242804      -0.45029443      -1.04350786      -0.31001873      -0.04144653      -0.16224445      -0.03052912
7
Lattice="13.0 0.0 0.0 0.0 9.0 0.0 0.0 0.0 9.0" Properties=species:S:1:pos:R:3:momenta:R:3:forces:R:3 EPS_SCF=1e-06 energy=-671.0485860037855 units=gap_units Integrated_spin_density=1.924e-05 opt_dir=/home/tks32/dft_pbe/apr_8_opt_fragments_subset/singlepoint_5_CH3OH time=35.0 free_energy=-671.0485860037855 cutoff=8.0 nneightol=1.2 pbc="T T T"
C       -0.64461168       0.40716725       0.00100550       0.16432131       0.01306400      -0.39296646      -0.06279526      -0.15570341       0.03750028
O        0.65023584      -0.28684372       0.07474356       1.06591612       0.74521249       1.07881961       0.12195280       0.25856828      -0.03729066
H       -1.49243085      -0.28379640      -0.08757482      -0.33400303      -0.00688212       0.22199701       0.05901510      -0.00533912      -0.11243013
H        0.56021887      -1.25824798       0.08296971      -0.00313487      -0.02209186      -0.69494848      -0.00074254       0.01009793       0.02153534
H       -0.82206846       0.99365504       0.91752124      -0.25882815       0.32308538       0.06201105       0.04666415       0.03860783       0.06953673
H       -0.66907731       1.10715980      -0.85649822      -0.18397695      -0.00888003       0.03510600      -0.02480575      -0.04535067       0.01267131
H        2.41773359      -0.67909401      -0.13216697      -0.45029443      -1.04350786      -0.31001873      -0.13928850      -0.10088086       0.00847713
7
Lattice="13.0 0.0 0.0 0.0 9.0 0.0 0.0 0.0 9.0" Properties=species:S:1:pos:R:3:momenta:R:3:forces:R:3 EPS_SCF=1e-06 energy=-671.0579489534782 units=gap_units Integrated_spin_density=1.924e-05 opt_dir=/home/tks32/dft_pbe/apr_8_opt_fragments_subset/singlepoint_5_CH3OH time=35.0 free_energy=-671.0579489534782 cutoff=8.0 nneightol=1.2 pbc="T T T"
C       -0.65151688       0.40597149       0.00436920       0.16432131       0.01306400      -0.39296646       0.16187470       0.24990662       0.00232843
O        0.66638970      -0.25228251       0.08147863       1.06591612       0.74521249       1.07881961      -0.13189547      -0.10122170      -0.05399673
H       -1.48280727      -0.29457586      -0.10418305      -0.33400303      -0.00688212       0.22199701      -0.06967875      -0.13784424      -0.04279443
H        0.57494816      -1.23003743       0.09021411      -0.00313487      -0.02209186      -0.69494848       0.09368157       0.25748588       0.03130837
H       -0.84140639       0.99374735       0.92294741      -0.25882815       0.32308538       0.06201105       0.12304830      -0.13804643      -0.11750663
H       -0.69131226       1.11042650      -0.85329992      -0.18397695      -0.00888003       0.03510600      -0.00779293      -0.10248707       0.13834371
H        2.42570493      -0.73324955      -0.14152638      -0.45029443      -1.04350786      -0.31001873      -0.16923741      -0.02779306       0.04231728
7
Lattice="13.0 0.0 0.0 0.0 9.0 0.0 0.0 0.0 9.0" Properties=species:S:1:pos:R:3:momenta:R:3:forces:R:3 EPS_SCF=1e-06 energy=-671.0569336369946 units=gap_units Integrated_spin_density=1.924e-05 opt_dir=/home/tks32/dft_pbe/apr_8_opt_fragments_subset/singlepoint_5_CH3OH time=35.0 free_energy=-671.0569336369946 cutoff=8.0 nneightol=1.2 pbc="T T T"
C       -0.65031549       0.41732377       0.00786154       0.16432131       0.01306400      -0.39296646      -0.27340299      -0.63806508      -0.11635733
O        0.67597487      -0.22268540       0.08552496       1.06591612       0.74521249       1.07881961      -0.03224763       0.44311703      -0.08919191
H       -1.47665006      -0.31231633      -0.12299841      -0.33400303      -0.00688212       0.22199701       0.28090365       0.24503585       0.10687187
H        0.59443400      -1.18879604       0.09905620      -0.00313487      -0.02209186      -0.69494848       0.02982981      -0.30095253       0.04130292
H       -0.85463106       0.98690624       0.92249035      -0.25882815       0.32308538       0.06201105       0.12727057       0.00767580       0.09288083
H       -0.71401585       1.10855687      -0.84314184      -0.18397695      -0.00888003       0.03510600       0.05749024       0.20647128      -0.10959668
H        2.42520357      -0.78898913      -0.14879280      -0.45029443      -1.04350786      -0.31001873      -0.18984365       0.03671766       0.07409031
7
Lattice="13.0 0.0 0.0 0.0 9.0 0.0 0.0 0.0 9.0" Properties=species:S:1:pos:R:3:momenta:R:3:forces:R:3 EPS_SCF=1e-06 energy=-671.063039658328 units=gap_units Integrated_spin_density=1.924e-05 opt_dir=/home/tks32/dft_pbe/apr_8_opt_fragments_subset/singlepoint_5_CH3OH time=35.0 free_energy=-671.063039658328 cutoff=8.0 nneightol=1.2 pbc="T T T"
C       -0.65277970       0.41157281       0.00681280       0.16432131       0.01306400      -0.39296646      -0.06600039      -0.14958774      -0.07402381
O        0.67568422      -0.21869153       0.08472106       1.06591612       0.74521249       1.07881961      -0.06886866       0.07473632      -0.08265393
H       -1.47411824      -0.31010779      -0.12203516      -0.33400303      -0.00688212       0.22199701       0.06722583       0.03902993       0.06611983
H        0.59470286      -1.19150856       0.09942847      -0.00313487      -0.02209186      -0.69494848       0.07794413      -0.02096853       0.03950617
H       -0.85348395       0.98697542       0.92332749      -0.25882815       0.32308538       0.06201105       0.11332370      -0.06955715      -0.00318204
H       -0.71349768       1.11041782      -0.84412965      -0.18397695      -0.00888003       0.03510600       0.03280829       0.09501758      -0.01298121
H        2.42349249      -0.78865819      -0.14812501      -0.45029443      -1.04350786      -0.31001873      -0.15643290       0.03132960       0.06721499
